14
XYZ from PySCF
O           0.74428       -2.06039       -2.95902
C           1.42679        1.73918        0.68497
C           1.29992       -0.31333       -0.86409
O           2.61789       -0.28941        1.11768
C           1.85850        0.32352        0.39584
N           1.83869       -1.63493       -1.01659
C           1.50344       -2.40914       -2.07426
H           0.33539        1.82827        0.65317
H           2.46702       -1.95321       -0.29164
H           1.79768        2.04226        1.66540
H           1.82943        2.41459       -0.07905
H           0.20247       -0.33674       -0.79887
H           1.99324       -3.40074       -2.05433
H           1.53599        0.31611       -1.73323
