14
XYZ from PySCF
O          -1.38194        1.52512        0.88554
C           0.28193        0.02131        0.01275
C           0.73090       -0.61401       -1.49099
C           1.08395       -0.05074        1.14017
N          -0.63137       -1.10106        0.18883
C          -0.52738        1.29423       -0.20433
O           1.72318       -0.98615       -1.99193
H          -1.83109        0.67733        1.03851
H          -0.10581       -1.95607        0.39449
H           1.59416       -0.97633        1.39267
H          -0.43534       -1.18488       -1.32018
H           0.13558        2.15976       -0.30085
H           1.25125        0.80331        1.79411
H          -1.09107        1.18393       -1.14417
