14
XYZ from PySCF
O          -1.62081        1.46189        0.14596
C           0.21940       -0.10273        0.20474
C           1.15799       -1.00721       -2.72274
C           1.36315       -0.20237        0.88386
N          -0.68090       -1.16826       -0.00980
C          -0.32364        1.19436       -0.34195
O           2.15524       -1.28189       -3.18924
H          -2.02883        0.59783        0.30570
H          -0.34927       -2.04773        0.36959
H           1.73236       -1.15781        1.25008
H          -0.89703       -1.28711       -0.99643
H           0.32728        2.02697       -0.05887
H           1.94642        0.68084        1.12228
H          -0.32959        1.13557       -1.44584
