14
XYZ from PySCF
O          -1.35272        1.69425        1.08133
C           0.05169        0.15393       -0.12253
C           0.61437       -0.37030       -1.40101
C           0.85231       -0.15073        1.09471
N          -0.39796       -0.84499        0.84104
C          -0.81606        1.40118       -0.18068
O           0.98333       -1.51591       -1.53156
H          -1.65965        0.84233        1.43519
H          -0.21354       -1.77217        0.45855
H           1.78142       -0.69993        0.95736
H           0.68375        0.35266       -2.23908
H          -0.22096        2.26584       -0.49606
H           0.82811        0.56388        1.91317
H          -1.61020        1.24922       -0.93166
