14
XYZ from PySCF
O           1.31206       -1.24535        1.74425
C           0.56064        0.63643       -1.23720
C           1.52727       -1.01510        0.35693
C           0.36992       -0.26872       -0.27227
N          -0.87094       -0.70648        0.19356
C           0.92935        1.69898        2.19012
O          -0.15362        1.52367        2.48911
H          -1.63878       -0.10469       -0.07611
H          -0.85534       -0.83678        1.19904
H           1.56178        0.87772       -1.57950
H          -0.26984        1.13152       -1.73392
H           1.67028       -1.96808       -0.17026
H           2.44304       -0.42642        0.24882
H           1.06212       -2.16808        1.86288
