14
XYZ from PySCF
O          -0.94772        0.43962       -2.73080
C          -0.00655        1.69063        0.70192
C           0.33159        0.25142        0.41196
O           1.37418       -0.16466        1.22108
C           0.05508        0.53344       -2.06410
N           0.33365       -0.24375       -0.94753
C          -0.72502       -0.69464       -0.05844
H          -0.26688        1.79293        1.75902
H          -0.67608       -1.74255        0.23026
H          -0.85343        2.02565        0.09600
H           0.87887        1.22723       -2.30916
H           1.70485       -1.00132        0.86643
H          -1.72539       -0.31287       -0.25837
H           0.85849        2.33002        0.50103
