14
XYZ from PySCF
O          -2.28286        0.84291        2.33402
C          -1.48819        0.93788        1.52823
C          -0.29110       -0.01323       -1.59643
C           0.15204       -0.88446       -0.44126
N           1.33042       -0.44932        0.15104
C          -0.54979       -1.96021       -0.06326
O           0.78706        0.60842       -2.26766
H           1.52984        0.53222        0.01736
H           1.40516       -0.08548       -2.53192
H          -0.27435       -2.55322        0.80511
H           1.49028       -0.76972        1.09550
H          -0.89621        0.81144       -1.20124
H          -0.92275       -0.59876       -2.27918
H          -1.41503       -2.28091       -0.63411
