14
XYZ from PySCF
O           2.18872        0.83088        0.90241
C           1.21248        0.14508        1.11175
C          -0.41558        1.27207       -0.44227
C          -0.79665       -1.22151        0.23161
N           0.41455        0.39461       -1.24892
C           0.10770       -0.00445        0.12052
O          -1.70490       -1.26654       -0.83604
H           0.02072        2.19791       -0.07358
H           1.09461       -0.40556        2.06729
H          -1.46294        1.30794       -0.72937
H          -1.18218       -1.05569       -1.62806
H          -0.17209       -2.13058        0.26844
H          -1.37948       -1.18093        1.15889
H           1.37188        0.74538       -1.27725
