14
XYZ from PySCF
O           1.19637       -1.27584        1.72880
C           0.50127        0.70863       -1.21453
C           1.43926       -0.97865        0.35939
C           0.29323       -0.21124       -0.26736
N          -0.95631       -0.64713        0.17665
C           0.87639        1.65796        2.26445
O          -0.21385        1.51753        2.55526
H          -1.71716       -0.03907       -0.09868
H          -0.95717       -0.78723        1.18085
H           1.50767        0.94738       -1.54327
H          -0.32031        1.21819       -1.71144
H           1.60638       -1.90465       -0.20746
H           2.35236       -0.37914        0.30645
H           0.87408       -2.18214        1.78709
