14
XYZ from PySCF
O           0.39504       -1.67235        1.56032
C          -0.35851       -0.51398        1.31469
C          -0.38029        1.65865       -0.15643
C          -0.44706       -0.86684       -1.15201
N           1.30236        0.21661       -0.30084
C          -0.12285       -0.01735       -0.10698
O          -1.00246        2.40290       -0.81396
H          -0.97922       -1.80474       -1.00130
H           0.88510        1.61450        0.16007
H           1.48799        0.49320       -1.26951
H           1.28603       -1.46825        1.23023
H          -0.18936       -0.60265       -2.17428
H          -1.41440       -0.76091        1.46444
H          -0.09162        0.29825        2.00923
