14
XYZ from PySCF
O          -1.65227        1.04914        2.03251
C          -1.31570        0.77521        0.94355
C           0.99295       -0.64727        0.95540
C           0.52394        0.92519       -0.92269
N          -0.81901       -0.99854       -0.28641
C           0.04334        0.05644        0.23263
O           1.23026        0.15410       -1.86006
H          -1.10260       -1.62858        0.47008
H           2.06274       -0.50567        0.81114
H           1.19565        1.70934       -0.55998
H           0.66239       -0.61367       -2.03754
H           0.68479       -1.35749        1.71816
H          -0.35703        1.40643       -1.37575
H          -1.88246        0.05507        0.01129
