14
XYZ from PySCF
O          -1.12828       -0.47577        2.49690
C           1.33998        0.38717       -0.06715
C          -1.05641        0.86749       -0.55630
C          -0.13819        0.04219        0.07223
N          -0.38609       -1.25596       -0.54315
C          -0.40105       -0.65311        1.59542
O           1.71857        0.38601       -1.41893
H           1.91876       -0.34674        0.51584
H          -2.10906        0.59814       -0.58176
H          -1.38656       -1.47497       -0.51714
H          -0.77381        1.80977       -1.02289
H           1.54112        1.38393        0.33784
H           1.35842       -0.44075       -1.78127
H          -0.11180       -1.71313        0.88775
