14
XYZ from PySCF
O           2.07905        1.45855        0.83863
C           0.68634       -1.50463        0.09130
C           0.98136        1.15450        0.56828
C           0.15538       -0.22835        0.00886
N          -0.72480       -0.16083        1.16434
C          -0.58310        0.15621       -1.27106
O          -1.29453        1.35716       -1.11959
H           1.15696       -1.84515        1.00934
H           0.69723       -2.19843       -0.74964
H          -1.87650        1.22896       -0.35538
H           0.13515        0.30986       -2.08225
H          -0.13681        1.26644        1.21343
H          -0.21932       -0.46236        2.00200
H          -1.25166       -0.67411       -1.54782
