14
XYZ from PySCF
O          -1.91868        1.02973        0.47651
C          -1.06183        0.78155       -0.60704
C           0.94793       -0.58299       -1.17547
C           0.16922       -0.01575       -0.18092
N          -0.20346       -1.15689        0.64045
C           0.83588        0.73578        1.19652
O           1.87229        1.16921        1.52720
H          -2.12790        0.16236        0.85498
H          -0.75660        1.75479       -1.00328
H           1.79441       -1.21364       -0.91884
H          -1.57576        0.22508       -1.40688
H           0.78197       -0.39608       -2.23658
H           0.04175       -0.11870        1.75464
H           0.62878       -1.70653        0.87102
