14
XYZ from PySCF
O          -0.66662        2.30921       -1.32277
C          -0.28818       -0.01890       -0.15781
C           1.18439       -0.07340       -0.42789
C          -0.23983        1.58470       -0.50844
N          -0.78839       -1.01029       -0.91196
C          -0.63668       -0.17835        1.32306
O          -0.26040       -1.45634        1.76601
H           1.78159       -0.75750        0.17689
H          -0.52298       -0.87510       -1.88895
H          -0.64230       -2.07220        1.12039
H           1.50741        0.03656       -1.46366
H           1.02820        1.46762       -0.08775
H          -0.09631        0.55354        1.93191
H          -1.71693       -0.00504        1.43774
