14
XYZ from PySCF
O          -2.18006        1.69470       -1.46761
C          -0.02684        0.28439       -0.81951
C           0.60781        0.61268        0.53288
C          -1.53306        0.96144       -0.82792
N           0.72139        0.19796       -1.93505
C          -0.66801       -1.06938       -0.85677
O           1.54676       -0.36551        0.91969
H           1.05935        1.61593        0.47733
H          -0.15662        0.62588        1.31645
H           1.68550        0.51619       -1.76503
H          -1.12878       -1.35508       -1.79926
H          -0.20329       -1.87097       -0.28099
H           2.15973       -0.50218        0.18533
H          -1.88763       -0.20389       -0.27615
