14
XYZ from PySCF
O          -1.43510        0.97951        2.01633
C          -0.61594        0.87817        1.18613
C          -0.16256        0.35829       -1.33708
C          -0.10623       -0.28627        0.04579
N           1.23797       -0.22931        0.59607
C          -0.43916       -1.62601        0.14912
O           0.40376        1.64335       -1.33605
H           0.66058        1.07724        1.19898
H           1.30967        1.53632       -1.00929
H          -0.33246       -2.14623        1.09688
H           1.26375       -0.71027        1.49934
H          -1.20334        0.46671       -1.65738
H           0.35537       -0.30633       -2.04604
H          -0.84626       -2.20283       -0.68169
