14
XYZ from PySCF
O           2.11643        1.36619       -0.88261
C          -0.13408        0.24903        0.06295
C           1.40825        0.46813       -0.62983
C          -1.03622        1.28857        0.21062
N          -0.57100       -0.40658       -1.15973
C          -0.00566       -0.75410        1.20699
O           0.73224       -1.88607        0.82632
H          -1.01932       -1.02957        1.53817
H           0.27432       -2.25750        0.05732
H          -1.21387        1.98150       -0.60698
H          -1.56819        1.48481        1.14169
H          -0.69657        0.28868       -1.90058
H           0.52285       -0.29567        2.04835
H           0.96218       -0.49673       -1.35907
