14
XYZ from PySCF
O           1.81160       -1.41606       -1.60530
C          -0.78439        0.96654       -0.71764
C           0.81070       -1.01004       -1.15443
C          -0.17530       -0.95638        0.80155
N           1.11274        0.86935        0.73273
C           0.33454        0.13961       -0.08283
O          -1.53510        1.60132        0.28544
H          -0.19145       -1.70619       -0.59796
H           1.82874        0.27530        1.15451
H          -0.32311        1.69058       -1.40509
H          -0.88473        2.06077        0.83975
H          -1.46847        0.32815       -1.28591
H           0.56367       -1.58324        1.30166
H          -1.08461       -0.75792        1.37105
