14
XYZ from PySCF
O           1.64965        1.18890       -0.95571
C          -0.79599       -0.37168        1.54668
C           1.28682        0.47563        0.19784
C          -0.08747       -0.15881        0.02221
N          -1.06445        0.88468       -0.26325
C          -0.26131       -1.04379       -1.02936
O          -1.29998       -1.25173        2.13404
H          -1.98274        0.46925       -0.44673
H          -1.19805        0.83777        1.25462
H           1.25000        1.12947        1.08352
H          -1.24881       -1.43400       -1.26095
H           2.04614       -0.29358        0.36992
H           0.87358        1.73210       -1.17175
H           0.56769       -1.39578       -1.64109
