14
XYZ from PySCF
O           1.35437        0.54116        2.33387
C           0.56291        1.00920       -0.67525
C           0.19265       -0.21800        0.10015
C          -1.30970       -0.50294        0.08810
N           0.90485       -1.19151       -0.48995
C           0.56170        0.60128        1.47438
O          -1.73850       -0.74303       -1.22743
H          -1.13742       -1.42214       -1.57248
H          -1.49718       -1.36518        0.74485
H           1.89758       -0.95104       -0.48231
H          -0.01698        1.23079       -1.57241
H           0.23134        1.66617        0.73223
H           1.61959        1.27493       -0.72057
H          -1.87305        0.35638        0.46605
