14
XYZ from PySCF
O           1.45763       -1.01271        2.00722
C           0.10070       -0.38811       -1.31908
C           0.62396       -0.91675        1.19046
C           0.09014        0.25169        0.06856
N          -1.23574        0.19872        0.66295
C           0.43312        1.58934        0.16757
O          -0.56025       -1.62616       -1.32271
H           0.37232        2.10281        1.12311
H          -1.23008        0.67590        1.56853
H          -0.36013        0.31653       -2.02967
H           0.80714        2.16978       -0.67609
H          -1.44444       -1.45687       -0.96361
H          -0.65035       -1.11668        1.23381
H           1.13151       -0.57488       -1.63600
