14
XYZ from PySCF
O           1.49432        0.10958        1.77321
C           0.12539        0.08926        1.46327
C          -1.56801       -0.21167       -0.45292
C           0.50578       -0.76877       -0.88415
N           0.55957        1.42454       -0.47080
C          -0.07227        0.32217       -0.03564
O          -2.49769        0.18106       -1.04573
H           1.42433       -1.24269       -0.53446
H           0.41387       -0.66587       -1.96582
H          -0.26396       -0.89040        1.75903
H           1.83717        0.91963        1.36293
H          -0.43116        0.86841        2.00459
H          -0.92675       -1.38372       -0.59821
H           0.41537        1.53812       -1.47560
