14
XYZ from PySCF
O          -1.07921       -0.80119       -1.80213
C           0.45085       -0.34355        1.67686
C           0.19486        0.05827        0.04821
C          -0.30274       -1.17632       -0.69462
N          -0.94680        0.87014        0.44719
C           0.99781        0.95119       -0.64209
O           1.32021       -0.22497        2.45390
H           0.54065       -1.77036       -1.06081
H          -0.80234        0.00471        1.70941
H          -0.62827        1.73528        0.89358
H           1.27641        1.89993       -0.19083
H          -1.70126       -0.13711       -1.46100
H          -0.87886       -1.79252        0.01373
H           1.38903        0.74121       -1.63628
